   12
 
 Ag     1.189430    -1.198350     0.004520 -0.154551
 Ag    -0.833780    -3.223890     0.009270 -0.005361
 Ag    -1.626870    -0.426570     0.003710 -0.162122
 Ag    -2.371000     2.376520     0.013870  0.336993
 Ag     0.446230     1.617900     0.009740  0.082583
 Ag     3.185190     0.867390    -0.003170  0.001506
 Ag     3.897640    -1.893230    -0.035170  0.076468
 Ag     1.880110    -3.948260    -0.023620  0.053792
 Ag    -3.530910    -2.489190    -0.015490  0.064044
 Ag    -4.311700     0.417750     0.004580  0.058791
 Ag    -0.374150     4.311330     0.014070 -0.467954
 Ag     2.452430     3.589120     0.022290  0.115919
