    8
FINAL HEAT OF FORMATION =     3.000000 opt via KS?
Ag     1.171387    -1.119201    -0.003194  4.000000
Ag     1.932004    -3.720270    -0.001828  2.000000
Ag    -0.741177    -3.038490     0.002404  2.000000
Ag    -1.554656    -0.454673    -0.001392  4.000000
Ag     0.384244     1.574160     0.006879  4.000000
Ag    -2.262197     2.160595    -0.002814  2.000000
Ag    -0.441930     4.270632     0.005049  0.000000
Ag    -3.219450     4.823353    -0.005154  0.000000
